LTspice 24.0.9 for Windows
Circuit: * C:\Users\Abhinav\OneDrive - IIT Dharwad\Desktop\E-Fuse R&D\LTspice\RC Filter for ADC.asc
Start Time: Fri Mar 29 16:34:15 2024
solver = Normal
Maximum thread count: 8
tnom = 27
temp = 27
method = modified trap
.OP point found by inspection.
Total elapsed time: 0.134 seconds.

